IEEETestCases/37Bus/ieee37_Power_elem_kVA.txt

CIRCUIT ELEMENT POWER FLOW

(Power Flow into element from indicated Bus)

Power Delivery Elements

  Bus     Phase     kW     +j   kvar         kVA         PF

ELEMENT = "Vsource.SOURCE"
SOURCEBUS     1      -889.6 +j   -691.0     1126.4       0.7898
SOURCEBUS     2      -704.9 +j   -464.0      844.0       0.8353
SOURCEBUS     3      -993.8 +j   -417.5     1078.0       0.9219
   TERMINAL TOTAL . -2588.4 +j  -1572.6     3028.6       0.8546
SOURCEBUS     0         0.0 +j      0.0        0.0       1.0000
SOURCEBUS     0         0.0 +j      0.0        0.0       1.0000
SOURCEBUS     0         0.0 +j      0.0        0.0       1.0000
   TERMINAL TOTAL .     0.0 +j      0.0        0.0       1.0000

ELEMENT = "Transformer.SUBXF"
SOURCEBUS     1       889.6 +j    691.0     1126.4       0.7898
SOURCEBUS     2       704.9 +j    464.0      844.0       0.8353
SOURCEBUS     3       993.8 +j    417.5     1078.0       0.9219
SOURCEBUS     0         0.0 +j      0.0        0.0       1.0000
   TERMINAL TOTAL .  2588.4 +j   1572.6     3028.6       0.8546
799           1      -859.2 +j   -473.8      981.2       0.8757
799           2      -752.3 +j   -426.4      864.7       0.8699
799           3      -901.5 +j   -370.5      974.6       0.9249
799           0         0.0 +j      0.0        0.0       1.0000
   TERMINAL TOTAL . -2512.9 +j  -1270.8     2816.0       0.8924

ELEMENT = "Transformer.XFM1"
709           1         0.0 +j      0.0        0.0       0.0000
709           2        -0.0 +j      0.0        0.0      -0.0000
709           3        -0.0 +j      0.0        0.0      -0.0000
709           0         0.0 +j      0.0        0.0       1.0000
   TERMINAL TOTAL .    -0.0 +j      0.0        0.0      -0.0000
775           1         0.0 +j      0.0        0.0       0.0814
775           2         0.0 +j      0.0        0.0       0.8716
775           3         0.0 +j      0.0        0.0       0.0593
775           0         0.0 +j      0.0        0.0       1.0000
   TERMINAL TOTAL .     0.0 +j      0.0        0.0       0.3954

ELEMENT = "Line.L1"
701           1       624.3 +j    365.7      723.5       0.8629
701           2       545.7 +j    301.0      623.2       0.8756
701           3       669.9 +j    225.7      706.9       0.9476
   TERMINAL TOTAL .  1839.9 +j    892.5     2044.9       0.8997
702           1      -619.7 +j   -361.7      717.5       0.8636
702           2      -543.1 +j   -298.5      619.8       0.8764
702           3      -666.1 +j   -221.4      702.0       0.9490
   TERMINAL TOTAL . -1828.9 +j   -881.7     2030.4       0.9008

ELEMENT = "Line.L2"
702           1        34.7 +j     44.7       56.6       0.6124
702           2        58.1 +j      0.9       58.1       0.9999
702           3        87.2 +j     39.0       95.5       0.9130
   TERMINAL TOTAL .   180.0 +j     84.6      198.9       0.9050
705           1       -34.6 +j    -44.7       56.6       0.6116
705           2       -58.0 +j     -0.9       58.0       0.9999
705           3       -87.1 +j    -39.0       95.4       0.9128
   TERMINAL TOTAL .  -179.7 +j    -84.6      198.6       0.9047

ELEMENT = "Line.L3"
702           1       128.4 +j     94.5      159.4       0.8053
702           2       196.6 +j     46.4      202.0       0.9732
702           3       212.9 +j    117.2      243.0       0.8761
   TERMINAL TOTAL .   537.9 +j    258.1      596.6       0.9016
713           1      -128.2 +j    -94.4      159.2       0.8050
713           2      -196.3 +j    -46.3      201.7       0.9733
713           3      -212.5 +j   -116.9      242.5       0.8761
   TERMINAL TOTAL .  -536.9 +j   -257.7      595.6       0.9015

ELEMENT = "Line.L4"
702           1       456.6 +j    222.5      507.9       0.8990
702           2       288.5 +j    251.2      382.5       0.7542
702           3       366.0 +j     65.3      371.8       0.9845
   TERMINAL TOTAL .  1111.1 +j    538.9     1234.9       0.8997
703           1      -453.5 +j   -219.8      503.9       0.8999
703           2      -287.2 +j   -250.0      380.8       0.7542
703           3      -364.5 +j    -63.7      370.1       0.9851
   TERMINAL TOTAL . -1105.2 +j   -533.5     1227.2       0.9006

ELEMENT = "Line.L5"
703           1       107.3 +j     39.3      114.2       0.9389
703           2        73.5 +j     67.5       99.8       0.7365
703           3        70.7 +j     18.1       73.0       0.9689
   TERMINAL TOTAL .   251.5 +j    124.9      280.8       0.8956
727           1      -107.1 +j    -39.3      114.1       0.9388
727           2       -73.4 +j    -67.5       99.8       0.7361
727           3       -70.6 +j    -18.1       72.9       0.9688
   TERMINAL TOTAL .  -251.2 +j   -124.9      280.5       0.8954

ELEMENT = "Line.L6"
703           1       346.3 +j    180.4      390.4       0.8868
703           2       213.6 +j    182.5      281.0       0.7603
703           3       293.8 +j     45.7      297.4       0.9881
   TERMINAL TOTAL .   853.7 +j    408.6      946.5       0.9020
730           1      -344.2 +j   -179.3      388.1       0.8868
730           2      -212.7 +j   -182.1      280.0       0.7596
730           3      -292.8 +j    -45.0      296.2       0.9884
   TERMINAL TOTAL .  -849.6 +j   -406.4      941.8       0.9021

ELEMENT = "Line.L7"
704           1        61.3 +j     -6.2       61.6      -0.9949
704           2        50.8 +j     51.7       72.4       0.7011
704           3         7.7 +j     10.8       13.3       0.5789
   TERMINAL TOTAL .   119.8 +j     56.2      132.3       0.9052
714           1       -61.3 +j      6.2       61.6      -0.9949
714           2       -50.8 +j    -51.7       72.4       0.7010
714           3        -7.7 +j    -10.8       13.3       0.5787
   TERMINAL TOTAL .  -119.7 +j    -56.3      132.3       0.9051

ELEMENT = "Line.L8"
704           1        37.0 +j     55.5       66.7       0.5550
704           2       145.1 +j     -5.5      145.2      -0.9993
704           3       149.1 +j    111.0      185.9       0.8020
   TERMINAL TOTAL .   331.2 +j    161.1      368.3       0.8993
720           1       -37.0 +j    -55.6       66.7       0.5538
720           2      -144.7 +j      5.6      144.9      -0.9993
720           3      -148.5 +j   -110.8      185.3       0.8015
   TERMINAL TOTAL .  -330.2 +j   -160.8      367.3       0.8991

ELEMENT = "Line.L9"
705           1         4.9 +j     -0.4        4.9      -0.9967
705           2        58.0 +j      0.9       58.0       0.9999
705           3        31.7 +j     44.1       54.3       0.5839
   TERMINAL TOTAL .    94.6 +j     44.7      104.7       0.9043
742           1        -4.9 +j      0.4        4.9      -0.9972
742           2       -58.0 +j     -1.0       58.0       0.9999
742           3       -31.7 +j    -44.1       54.3       0.5834
   TERMINAL TOTAL .   -94.6 +j    -44.7      104.6       0.9040

ELEMENT = "Line.L10"
705           1        29.7 +j     45.1       54.0       0.5497
705           2         0.0 +j     -0.0        0.0      -0.0000
705           3        55.4 +j     -5.2       55.6      -0.9957
   TERMINAL TOTAL .    85.1 +j     40.0       94.0       0.9051
712           1       -29.7 +j    -45.2       54.0       0.5492
712           2        -0.0 +j     -0.0        0.0       0.4040
712           3       -55.3 +j      5.2       55.6      -0.9957
   TERMINAL TOTAL .   -85.0 +j    -40.0       93.9       0.9048

ELEMENT = "Line.L11"
706           1        -0.0 +j     -0.0        0.0       0.0000
706           2        27.0 +j     -1.0       27.1      -0.9993
706           3        15.0 +j     22.0       26.6       0.5632
   TERMINAL TOTAL .    42.0 +j     20.9       46.9       0.8951
725           1         0.0 +j      0.0        0.0       0.8270
725           2       -27.0 +j      1.0       27.1      -0.9993
725           3       -15.0 +j    -22.0       26.6       0.5626
   TERMINAL TOTAL .   -42.0 +j    -21.0       47.0       0.8944

ELEMENT = "Line.L12"
707           1        -0.0 +j     -0.1        0.1       0.0000
707           2        27.0 +j     -1.1       27.0      -0.9992
707           3        14.9 +j     21.9       26.5       0.5625
   TERMINAL TOTAL .    41.9 +j     20.8       46.8       0.8961
724           1        -0.0 +j      0.0        0.0      -0.3768
724           2       -27.0 +j      1.0       27.0      -0.9993
724           3       -14.9 +j    -22.0       26.6       0.5610
   TERMINAL TOTAL .   -41.9 +j    -21.0       46.9       0.8944

ELEMENT = "Line.L13"
707           1         7.2 +j     10.6       12.8       0.5611
707           2        90.2 +j     -3.5       90.2      -0.9993
707           3        62.8 +j     72.0       95.6       0.6574
   TERMINAL TOTAL .   160.2 +j     79.1      178.7       0.8965
722           1        -7.2 +j    -10.6       12.8       0.5607
722           2       -90.1 +j      3.5       90.2      -0.9993
722           3       -62.8 +j    -72.0       95.6       0.6571
   TERMINAL TOTAL .  -160.1 +j    -79.2      178.6       0.8964

ELEMENT = "Line.L14"
708           1       301.5 +j    114.3      322.5       0.9350
708           2       157.7 +j    184.9      243.0       0.6489
708           3       182.0 +j      8.0      182.2       0.9990
   TERMINAL TOTAL .   641.2 +j    307.2      711.0       0.9018
733           1      -300.8 +j   -113.9      321.6       0.9351
733           2      -157.3 +j   -184.7      242.6       0.6483
733           3      -181.8 +j     -7.9      182.0       0.9991
   TERMINAL TOTAL .  -639.9 +j   -306.5      709.5       0.9019

ELEMENT = "Line.L15"
708           1        14.2 +j     22.9       26.9       0.5260
708           2         0.0 +j     -0.0        0.0      -0.0000
708           3        27.9 +j     -1.9       27.9      -0.9976
   TERMINAL TOTAL .    42.0 +j     20.9       46.9       0.8951
732           1       -14.1 +j    -22.9       26.9       0.5254
732           2         0.0 +j     -0.0        0.0      -0.8286
732           3       -27.9 +j      1.9       27.9      -0.9977
   TERMINAL TOTAL .   -42.0 +j    -21.0       47.0       0.8944

ELEMENT = "Line.L16"
709           1        -0.0 +j     -0.1        0.1       0.0000
709           2        54.3 +j     -3.1       54.4      -0.9984
709           3        31.4 +j     43.3       53.5       0.5874
   TERMINAL TOTAL .    85.8 +j     40.2       94.7       0.9056
731           1        -0.0 +j      0.0        0.0      -0.9967
731           2       -54.3 +j      3.0       54.4      -0.9984
731           3       -31.4 +j    -43.4       53.5       0.5866
   TERMINAL TOTAL .   -85.7 +j    -40.3       94.7       0.9048

ELEMENT = "Line.L17"
709           1       316.6 +j    137.7      345.2       0.9170
709           2       158.1 +j    185.0      243.3       0.6495
709           3       210.2 +j      6.2      210.3       0.9996
   TERMINAL TOTAL .   684.8 +j    328.9      759.7       0.9014
708           1      -315.7 +j   -137.2      344.2       0.9171
708           2      -157.7 +j   -184.9      243.0       0.6489
708           3      -209.9 +j     -6.1      210.0       0.9996
   TERMINAL TOTAL .  -683.3 +j   -328.2      758.0       0.9014

ELEMENT = "Line.L18"
710           1        29.1 +j     44.8       53.4       0.5440
710           2         0.0 +j     -0.0        0.0      -0.0000
710           3        55.4 +j     -5.1       55.6      -0.9957
   TERMINAL TOTAL .    84.5 +j     39.7       93.3       0.9050
735           1       -29.0 +j    -44.8       53.4       0.5436
735           2        -0.0 +j      0.0        0.0      -0.7736
735           3       -55.4 +j      5.1       55.6      -0.9957
   TERMINAL TOTAL .   -84.4 +j    -39.7       93.3       0.9048

ELEMENT = "Line.L19"
710           1        -0.0 +j     -0.1        0.1       0.0000
710           2        26.9 +j     -0.9       26.9      -0.9994
710           3        15.1 +j     21.6       26.4       0.5717
   TERMINAL TOTAL .    41.9 +j     20.6       46.8       0.8972
736           1         0.0 +j      0.0        0.0       0.9557
736           2       -26.8 +j      0.8       26.8      -0.9996
736           3       -15.0 +j    -21.7       26.4       0.5691
   TERMINAL TOTAL .   -41.9 +j    -20.9       46.8       0.8944

ELEMENT = "Line.L20"
711           1        13.9 +j     22.6       26.5       0.5231
711           2         0.0 +j     -0.0        0.0      -0.0000
711           3        27.6 +j     -1.9       27.7      -0.9976
   TERMINAL TOTAL .    41.5 +j     20.6       46.3       0.8955
741           1       -13.9 +j    -22.6       26.5       0.5224
741           2         0.0 +j      0.0        0.0       0.5572
741           3       -27.6 +j      1.9       27.7      -0.9977
   TERMINAL TOTAL .   -41.5 +j    -20.7       46.4       0.8944

ELEMENT = "Line.L21"
711           1        28.8 +j     44.5       53.0       0.5429
711           2         0.0 +j     -0.0        0.0      -0.0000
711           3        55.2 +j     -5.1       55.4      -0.9958
   TERMINAL TOTAL .    84.0 +j     39.5       92.8       0.9050
740           1       -28.8 +j    -44.5       53.0       0.5425
740           2         0.0 +j      0.0        0.0       0.9972
740           3       -55.2 +j      5.1       55.4      -0.9958
   TERMINAL TOTAL .   -83.9 +j    -39.5       92.7       0.9048

ELEMENT = "Line.L22"
713           1        98.5 +j     49.3      110.1       0.8942
713           2       196.3 +j     46.3      201.7       0.9733
713           3       157.2 +j    122.1      199.0       0.7898
   TERMINAL TOTAL .   451.9 +j    217.7      501.6       0.9009
704           1       -98.3 +j    -49.3      110.0       0.8939
704           2      -195.9 +j    -46.2      201.2       0.9733
704           3      -156.8 +j   -121.9      198.6       0.7895
   TERMINAL TOTAL .  -451.0 +j   -217.3      500.6       0.9009

ELEMENT = "Line.L23"
714           1        50.9 +j     -5.1       51.2      -0.9950
714           2        30.9 +j     43.5       53.4       0.5792
714           3         0.0 +j     -0.0        0.0      -0.0000
   TERMINAL TOTAL .    81.9 +j     38.4       90.4       0.9055
718           1       -50.9 +j      5.1       51.1      -0.9950
718           2       -30.9 +j    -43.6       53.4       0.5782
718           3         0.0 +j      0.0        0.0       0.9167
   TERMINAL TOTAL .   -81.7 +j    -38.5       90.3       0.9048

ELEMENT = "Line.L24"
720           1         7.2 +j     10.5       12.7       0.5664
720           2       117.7 +j     -4.5      117.8      -0.9993
720           3        78.3 +j     94.1      122.4       0.6398
   TERMINAL TOTAL .   203.2 +j    100.0      226.5       0.8972
707           1        -7.2 +j    -10.5       12.8       0.5633
707           2      -117.2 +j      4.6      117.3      -0.9992
707           3       -77.8 +j    -94.0      122.0       0.6375
   TERMINAL TOTAL .  -202.1 +j    -99.9      225.5       0.8964

ELEMENT = "Line.L25"
720           1        -0.0 +j     -0.1        0.1       0.0000
720           2        27.1 +j     -1.1       27.1      -0.9992
720           3        15.0 +j     21.9       26.5       0.5644
   TERMINAL TOTAL .    42.0 +j     20.8       46.9       0.8967
706           1         0.0 +j      0.0        0.0       0.0000
706           2       -27.0 +j      1.0       27.1      -0.9993
706           3       -15.0 +j    -22.0       26.6       0.5632
   TERMINAL TOTAL .   -42.0 +j    -20.9       46.9       0.8951

ELEMENT = "Line.L26"
727           1        92.9 +j     16.4       94.3       0.9847
727           2        73.4 +j     67.5       99.8       0.7361
727           3        42.9 +j     20.0       47.3       0.9066
   TERMINAL TOTAL .   209.2 +j    103.9      233.6       0.8956
744           1       -92.8 +j    -16.4       94.3       0.9847
744           2       -73.4 +j    -67.5       99.7       0.7359
744           3       -42.9 +j    -20.0       47.3       0.9064
   TERMINAL TOTAL .  -209.1 +j   -103.9      233.5       0.8955

ELEMENT = "Line.L27"
730           1       317.1 +j    137.9      345.8       0.9170
730           2       212.7 +j    182.1      280.0       0.7596
730           3       241.9 +j     49.7      246.9       0.9795
   TERMINAL TOTAL .   771.7 +j    369.7      855.6       0.9018
709           1      -316.6 +j   -137.6      345.2       0.9171
709           2      -212.4 +j   -181.9      279.6       0.7594
709           3      -241.6 +j    -49.5      246.6       0.9796
   TERMINAL TOTAL .  -770.6 +j   -369.1      854.4       0.9019

ELEMENT = "Line.L28"
733           1       250.2 +j    120.0      277.5       0.9017
733           2       125.7 +j    141.3      189.1       0.6645
733           3       181.8 +j      7.9      182.0       0.9991
   TERMINAL TOTAL .   557.7 +j    269.1      619.3       0.9006
734           1      -249.2 +j   -119.4      276.3       0.9018
734           2      -125.3 +j   -141.2      188.8       0.6637
734           3      -181.4 +j     -7.6      181.6       0.9991
   TERMINAL TOTAL .  -555.9 +j   -268.3      617.3       0.9006

ELEMENT = "Line.L29"
734           1       206.0 +j     51.9      212.4       0.9697
734           2        98.4 +j    142.1      172.9       0.5692
734           3        83.0 +j     -7.0       83.3      -0.9965
   TERMINAL TOTAL .   387.4 +j    187.1      430.2       0.9005
737           1      -205.3 +j    -51.6      211.7       0.9699
737           2       -98.0 +j   -142.0      172.6       0.5680
737           3       -82.9 +j      7.0       83.2      -0.9965
   TERMINAL TOTAL .  -386.3 +j   -186.6      429.0       0.9004

ELEMENT = "Line.L30"
734           1        29.1 +j     44.7       53.4       0.5459
734           2        26.9 +j     -1.0       26.9      -0.9994
734           3        70.6 +j     16.5       72.5       0.9737
   TERMINAL TOTAL .   126.6 +j     60.3      140.2       0.9029
710           1       -29.1 +j    -44.7       53.4       0.5449
710           2       -26.9 +j      0.9       26.9      -0.9994
710           3       -70.5 +j    -16.5       72.4       0.9736
   TERMINAL TOTAL .  -126.4 +j    -60.3      140.1       0.9025

ELEMENT = "Line.L31"
737           1       121.7 +j     60.0      135.7       0.8970
737           2        47.2 +j     69.1       83.7       0.5645
737           3        82.9 +j     -7.0       83.2      -0.9965
   TERMINAL TOTAL .   251.9 +j    122.1      279.9       0.8999
738           1      -121.5 +j    -59.9      135.5       0.8969
738           2       -47.2 +j    -69.1       83.7       0.5639
738           3       -82.9 +j      7.0       83.2      -0.9965
   TERMINAL TOTAL .  -251.6 +j   -122.0      279.6       0.8997

ELEMENT = "Line.L32"
738           1        42.7 +j     67.1       79.5       0.5369
738           2         0.0 +j     -0.1        0.1      -0.0000
738           3        82.9 +j     -7.0       83.2      -0.9965
   TERMINAL TOTAL .   125.6 +j     60.0      139.2       0.9022
711           1       -42.6 +j    -67.1       79.5       0.5363
711           2        -0.0 +j      0.1        0.1      -0.0000
711           3       -82.8 +j      7.0       83.1      -0.9965
   TERMINAL TOTAL .  -125.5 +j    -60.1      139.1       0.9019

ELEMENT = "Line.L33"
744           1        40.7 +j     20.8       45.7       0.8905
744           2        42.5 +j     22.2       47.9       0.8866
744           3        42.9 +j     20.0       47.3       0.9062
   TERMINAL TOTAL .   126.1 +j     63.0      140.9       0.8946
728           1       -40.7 +j    -20.8       45.7       0.8903
728           2       -42.5 +j    -22.2       47.9       0.8864
728           3       -42.8 +j    -20.0       47.3       0.9060
   TERMINAL TOTAL .  -126.0 +j    -63.0      140.9       0.8944

ELEMENT = "Line.L34"
744           1        25.7 +j     -2.3       25.8      -0.9960
744           2        15.3 +j     22.3       27.0       0.5669
744           3         0.0 +j     -0.0        0.0      -0.0000
   TERMINAL TOTAL .    41.0 +j     19.9       45.6       0.8993
729           1       -25.7 +j      2.3       25.8      -0.9961
729           2       -15.3 +j    -22.3       27.0       0.5664
729           3        -0.0 +j      0.0        0.0      -0.3955
   TERMINAL TOTAL .   -41.0 +j    -20.0       45.6       0.8987

ELEMENT = "Line.L35"
799R          1       844.2 +j    559.5     1012.8       0.8336
799R          2       692.6 +j    380.1      790.0       0.8767
799R          3       961.5 +j    294.8     1005.7       0.9561
   TERMINAL TOTAL .  2498.3 +j   1234.3     2786.6       0.8965
701           1      -832.2 +j   -549.6      997.3       0.8344
701           2      -687.2 +j   -374.4      782.6       0.8781
701           3      -950.5 +j   -283.5      991.9       0.9583
   TERMINAL TOTAL . -2469.9 +j  -1207.5     2749.3       0.8984

ELEMENT = "Transformer.REG1A"
799           1       859.2 +j    473.8      981.2       0.8757
799           2       -81.1 +j   1151.4     1154.2      -0.0702
   TERMINAL TOTAL .   778.1 +j   1625.2     1801.9       0.4318
799R          1      -844.2 +j   -559.5     1012.8       0.8336
799R          2        73.7 +j  -1046.7     1049.3      -0.0702
   TERMINAL TOTAL .  -770.5 +j  -1606.1     1781.4       0.4325

ELEMENT = "Transformer.REG1C"
799           3       901.5 +j    370.5      974.6       0.9249
799           2       833.4 +j   -724.9     1104.5      -0.7545
   TERMINAL TOTAL .  1734.8 +j   -354.4     1770.6      -0.9798
799R          3      -961.5 +j   -294.8     1005.7       0.9561
799R          2      -766.3 +j    666.6     1015.6      -0.7545
   TERMINAL TOTAL . -1727.8 +j    371.8     1767.4      -0.9776

ELEMENT = "Line.JUMPER"
799           2         0.0 +j     -0.0        0.0      -0.0219
   TERMINAL TOTAL .     0.0 +j     -0.0        0.0      -0.0219
799R          2        -0.0 +j      0.0        0.0      -0.0219
   TERMINAL TOTAL .    -0.0 +j      0.0        0.0      -0.0219

= = = = = = = = = = = = = = = = = = =  = = = = = = = = = = =  = =

Power Conversion Elements

  Bus     Phase     kW   +j  kvar         kVA         PF

ELEMENT = "Load.S701A"
701           1      88.4 +j   -6.7       88.7      -0.9972
701           2      51.6 +j   76.7       92.4       0.5581
  TERMINAL TOTAL  .   140.0 +j     70.0      156.5       0.8944

ELEMENT = "Load.S701B"
701           2      90.0 +j   -3.3       90.0      -0.9993
701           3      50.0 +j   73.3       88.8       0.5636
  TERMINAL TOTAL  .   140.0 +j     70.0      156.5       0.8944

ELEMENT = "Load.S701C"
701           3     230.6 +j  -15.6      231.1      -0.9977
701           1     119.4 +j  190.6      224.9       0.5310
  TERMINAL TOTAL  .   350.0 +j    175.0      391.3       0.8944

ELEMENT = "Load.S712C"
712           3      55.3 +j   -5.2       55.6      -0.9957
712           1      29.7 +j   45.2       54.0       0.5492
  TERMINAL TOTAL  .    85.0 +j     40.0       93.9       0.9048

ELEMENT = "Load.S713C"
713           3      55.3 +j   -5.1       55.6      -0.9957
713           1      29.7 +j   45.1       54.0       0.5495
  TERMINAL TOTAL  .    85.0 +j     40.0       93.9       0.9048

ELEMENT = "Load.S714A"
714           1      10.3 +j   -1.1       10.4      -0.9944
714           2       6.3 +j    8.8       10.9       0.5843
  TERMINAL TOTAL  .    16.7 +j      7.7       18.4       0.9078

ELEMENT = "Load.S714B"
714           2      13.5 +j   -0.7       13.5      -0.9987
714           3       7.7 +j   10.9       13.3       0.5771
  TERMINAL TOTAL  .    21.2 +j     10.2       23.5       0.9015

ELEMENT = "Load.S718A"
718           1      50.9 +j   -5.1       51.1      -0.9950
718           2      30.9 +j   43.6       53.4       0.5782
  TERMINAL TOTAL  .    81.7 +j     38.5       90.3       0.9048

ELEMENT = "Load.S720C"
720           3      55.2 +j   -5.2       55.5      -0.9956
720           1      29.8 +j   45.2       54.1       0.5501
  TERMINAL TOTAL  .    85.0 +j     40.0       93.9       0.9048

ELEMENT = "Load.S722B"
722           2      90.1 +j   -3.5       90.2      -0.9993
722           3      49.8 +j   73.4       88.7       0.5613
  TERMINAL TOTAL  .   139.9 +j     69.9      156.4       0.8946

ELEMENT = "Load.S722C"
722           3      13.0 +j   -1.4       13.1      -0.9946
722           1       7.2 +j   10.6       12.8       0.5607
  TERMINAL TOTAL  .    20.2 +j      9.2       22.2       0.9092

ELEMENT = "Load.S724B"
724           2      27.0 +j   -1.0       27.0      -0.9993
724           3      14.9 +j   22.0       26.6       0.5610
  TERMINAL TOTAL  .    41.9 +j     21.0       46.9       0.8944

ELEMENT = "Load.S725B"
725           2      27.0 +j   -1.0       27.1      -0.9993
725           3      15.0 +j   22.0       26.6       0.5626
  TERMINAL TOTAL  .    42.0 +j     21.0       47.0       0.8944

ELEMENT = "Load.S727C"
727           3      27.8 +j   -1.9       27.8      -0.9977
727           1      14.2 +j   22.9       27.0       0.5277
  TERMINAL TOTAL  .    42.0 +j     21.0       47.0       0.8944

ELEMENT = "Load.S728"
728           1      40.7 +j   20.8       45.7       0.8903
728           2      42.5 +j   22.2       47.9       0.8864
728           3      42.8 +j   20.0       47.3       0.9060
  TERMINAL TOTAL  .   126.0 +j     63.0      140.9       0.8944

ELEMENT = "Load.S729A"
729           1      25.7 +j   -2.3       25.8      -0.9961
729           2      15.3 +j   22.3       27.0       0.5664
  TERMINAL TOTAL  .    41.0 +j     20.0       45.6       0.8987

ELEMENT = "Load.S730C"
730           3      51.0 +j   -4.7       51.2      -0.9958
730           1      27.0 +j   41.4       49.4       0.5467
  TERMINAL TOTAL  .    78.0 +j     36.7       86.2       0.9048

ELEMENT = "Load.S731B"
731           2      54.3 +j   -3.0       54.4      -0.9984
731           3      31.4 +j   43.4       53.5       0.5866
  TERMINAL TOTAL  .    85.7 +j     40.3       94.7       0.9048

ELEMENT = "Load.S732C"
732           3      27.9 +j   -1.9       27.9      -0.9977
732           1      14.1 +j   22.9       26.9       0.5254
  TERMINAL TOTAL  .    42.0 +j     21.0       47.0       0.8944

ELEMENT = "Load.S733A"
733           1      50.6 +j   -6.0       50.9      -0.9930
733           2      31.6 +j   43.4       53.7       0.5887
  TERMINAL TOTAL  .    82.2 +j     37.4       90.3       0.9102

ELEMENT = "Load.S734C"
734           3      27.8 +j   -1.9       27.9      -0.9977
734           1      14.1 +j   22.8       26.8       0.5240
  TERMINAL TOTAL  .    41.9 +j     20.9       46.8       0.8944

ELEMENT = "Load.S735C"
735           3      55.4 +j   -5.1       55.6      -0.9957
735           1      29.0 +j   44.8       53.4       0.5436
  TERMINAL TOTAL  .    84.4 +j     39.7       93.3       0.9048

ELEMENT = "Load.S736B"
736           2      26.8 +j   -0.8       26.8      -0.9996
736           3      15.0 +j   21.7       26.4       0.5691
  TERMINAL TOTAL  .    41.9 +j     20.9       46.8       0.8944

ELEMENT = "Load.S737A"
737           1      83.6 +j   -8.4       84.1      -0.9950
737           2      50.8 +j   72.9       88.9       0.5713
  TERMINAL TOTAL  .   134.4 +j     64.5      149.1       0.9015

ELEMENT = "Load.S738A"
738           1      78.8 +j   -7.2       79.1      -0.9959
738           2      47.2 +j   69.2       83.7       0.5633
  TERMINAL TOTAL  .   126.0 +j     62.0      140.4       0.8973

ELEMENT = "Load.S740C"
740           3      55.2 +j   -5.1       55.4      -0.9958
740           1      28.8 +j   44.5       53.0       0.5425
  TERMINAL TOTAL  .    83.9 +j     39.5       92.7       0.9048

ELEMENT = "Load.S741C"
741           3      27.6 +j   -1.9       27.7      -0.9977
741           1      13.9 +j   22.6       26.5       0.5224
  TERMINAL TOTAL  .    41.5 +j     20.7       46.4       0.8944

ELEMENT = "Load.S742A"
742           1       4.9 +j   -0.4        4.9      -0.9972
742           2       2.9 +j    4.2        5.1       0.5591
  TERMINAL TOTAL  .     7.8 +j      3.9        8.7       0.8944

ELEMENT = "Load.S742B"
742           2      55.1 +j   -3.3       55.2      -0.9982
742           3      31.7 +j   44.1       54.3       0.5834
  TERMINAL TOTAL  .    86.8 +j     40.9       95.9       0.9048

ELEMENT = "Load.S744A"
744           1      26.5 +j   -2.1       26.5      -0.9969
744           2      15.5 +j   23.1       27.8       0.5585
  TERMINAL TOTAL  .    42.0 +j     21.0       47.0       0.8944


Total Circuit Losses =  152.4 +j  386.6
